/*--------------------------------*- C++ -*----------------------------------*\
  =========                 |
  \\      /  F ield         | OpenFOAM: The Open Source CFD Toolbox
   \\    /   O peration     | Website:  https://openfoam.org
    \\  /    A nd           | Version:  7
     \\/     M anipulation  |
\*---------------------------------------------------------------------------*/
FoamFile
{
    version     2.0;
    format      ascii;
    class       featureEdgeMesh;
    location    "constant/triSurface";
    object      inlet.eMesh;
}
// * * * * * * * * * * * * * * * * * * * * * * * * * * * * * * * * * * * * * //


// points:

50
(
(0.0154873 0.041747998 0.037595399)
(0.0157359 0.0411679 0.037847701)
(0.0097364197 0.033620499 0.0361192)
(0.0091813197 0.033815 0.0357785)
(0.0070543201 0.035865199 0.034209099)
(0.0068057398 0.036445301 0.033956699)
(0.0151007 0.036038201 0.038541298)
(0.0147124 0.035489298 0.038441598)
(0.0116315 0.044134598 0.035019498)
(0.0122259 0.0441055 0.035347998)
(0.0103157 0.033507701 0.036456399)
(0.0109101 0.033478599 0.036784898)
(0.0074408702 0.041575 0.033263098)
(0.0078292396 0.042123899 0.033362798)
(0.0128052 0.043992698 0.035685301)
(0.0133603 0.043798201 0.0360259)
(0.0138824 0.043524899 0.0363646)
(0.0151722 0.042281698 0.0373163)
(0.00665781 0.039704401 0.033216801)
(0.0068505001 0.0403556 0.033189502)
(0.0086591598 0.034088299 0.0354398)
(0.0081781996 0.034435902 0.035108399)
(0.0071128998 0.0409825 0.033205099)
(0.016049 0.0392434 0.038407199)
(0.0160037 0.038574301 0.038518101)
(0.0137798 0.034556299 0.038124301)
(0.0132503 0.034187 0.037911698)
(0.0073694 0.035331499 0.034488101)
(0.0115101 0.033533402 0.037099499)
(0.0092913397 0.043426201 0.033892799)
(0.0098520704 0.043722801 0.0341371)
(0.0066275699 0.037062701 0.0337351)
(0.0126895 0.0338904 0.037667301)
(0.0121064 0.033671401 0.037395202)
(0.0142697 0.034992799 0.0383019)
(0.0143634 0.043177299 0.036696099)
(0.0082718898 0.042620499 0.033502601)
(0.0087618297 0.043056902 0.033680201)
(0.0077459998 0.034852501 0.034789499)
(0.016019 0.0399056 0.038256899)
(0.0065226299 0.037707601 0.033547599)
(0.0147956 0.0427607 0.037014998)
(0.015914001 0.0405505 0.038069401)
(0.0104352 0.0439418 0.034409299)
(0.0110315 0.044079799 0.034704901)
(0.0154287 0.036630701 0.038599402)
(0.00649257 0.038369801 0.033397201)
(0.00653787 0.0390389 0.0332864)
(0.0158838 0.0379088 0.038587701)
(0.0156911 0.037257601 0.038614899)
)


// edges:

50
(
(0 1)
(2 3)
(4 5)
(6 7)
(8 9)
(10 2)
(11 10)
(12 13)
(14 15)
(15 16)
(17 0)
(18 19)
(20 21)
(9 14)
(19 22)
(3 20)
(23 24)
(22 12)
(25 26)
(27 4)
(28 11)
(29 30)
(5 31)
(32 33)
(33 28)
(7 34)
(16 35)
(36 37)
(21 38)
(39 23)
(31 40)
(35 41)
(1 42)
(43 44)
(38 27)
(45 6)
(44 8)
(30 43)
(34 25)
(13 36)
(37 29)
(41 17)
(42 39)
(46 47)
(24 48)
(48 49)
(47 18)
(49 45)
(26 32)
(40 46)
)

// * * * * * * * * * * * * * * * * * * * * * * * * * * * * * * * * * * * * * //


// ************************************************************************* //
