/*--------------------------------*- C++ -*----------------------------------*\
  =========                 |
  \\      /  F ield         | OpenFOAM: The Open Source CFD Toolbox
   \\    /   O peration     | Website:  https://openfoam.org
    \\  /    A nd           | Version:  7
     \\/     M anipulation  |
\*---------------------------------------------------------------------------*/
FoamFile
{
    version     2.0;
    format      ascii;
    class       featureEdgeMesh;
    location    "constant/triSurface";
    object      outlet.eMesh;
}
// * * * * * * * * * * * * * * * * * * * * * * * * * * * * * * * * * * * * * //


// points:

50
(
(0.0291565 0.070646301 0.020044001)
(0.029110501 0.070125602 0.019993899)
(0.027130499 0.067171402 0.01981)
(0.026664799 0.066928603 0.0198125)
(0.0263728 0.074658103 0.020613199)
(0.026855201 0.074456401 0.020564601)
(0.0208095 0.070807099 0.0205475)
(0.0208556 0.071327902 0.020597599)
(0.027308101 0.074195899 0.0205118)
(0.021275099 0.0687932 0.0203162)
(0.0210639 0.069270097 0.0203768)
(0.020829299 0.070285097 0.020493399)
(0.0290516 0.071683399 0.020155299)
(0.029136799 0.071168303 0.020098099)
(0.021668401 0.073236898 0.0207437)
(0.022012699 0.073632903 0.0207638)
(0.024826 0.074883401 0.020726301)
(0.025350099 0.074873298 0.020694699)
(0.0211413 0.072332799 0.020682801)
(0.0213765 0.072801203 0.0207166)
(0.0240977 0.066655599 0.019934701)
(0.023593299 0.066795297 0.0199783)
(0.025140099 0.066570103 0.0198652)
(0.024615999 0.066580199 0.0198968)
(0.021544799 0.068346702 0.020255201)
(0.026172699 0.066745698 0.0198227)
(0.025661699 0.066625498 0.019840401)
(0.028902199 0.072183304 0.020214699)
(0.025868399 0.074797802 0.0206568)
(0.028999301 0.069614403 0.0199486)
(0.022835599 0.074282102 0.020781601)
(0.023301199 0.074524902 0.020779001)
(0.0288247 0.069120601 0.0199087)
(0.023793399 0.074707799 0.020768801)
(0.024304301 0.074827902 0.020751201)
(0.022657899 0.067257501 0.020079801)
(0.0222417 0.067572802 0.020136001)
(0.028589601 0.068652302 0.019874901)
(0.028297599 0.0682166 0.019847799)
(0.027953399 0.067820497 0.019827699)
(0.0209668 0.071839102 0.020643)
(0.0231109 0.066996999 0.0200269)
(0.0218687 0.067937702 0.020194801)
(0.0284213 0.073106803 0.020336401)
(0.028690999 0.072660297 0.020275399)
(0.022403801 0.0739832 0.020776501)
(0.020914501 0.069770098 0.020436199)
(0.0275623 0.067470297 0.0198151)
(0.0277244 0.073880702 0.0204555)
(0.0280974 0.073515698 0.0203967)
)


// edges:

50
(
(0 1)
(2 3)
(4 5)
(6 7)
(5 8)
(9 10)
(11 6)
(12 13)
(14 15)
(16 17)
(18 19)
(20 21)
(22 23)
(24 9)
(25 26)
(27 12)
(28 4)
(23 20)
(1 29)
(30 31)
(19 14)
(29 32)
(17 28)
(33 34)
(35 36)
(37 38)
(38 39)
(40 18)
(31 33)
(21 41)
(36 42)
(43 44)
(41 35)
(26 22)
(42 24)
(32 37)
(15 45)
(10 46)
(46 11)
(47 2)
(8 48)
(48 49)
(49 43)
(44 27)
(3 25)
(34 16)
(7 40)
(39 47)
(13 0)
(45 30)
)

// * * * * * * * * * * * * * * * * * * * * * * * * * * * * * * * * * * * * * //


// ************************************************************************* //
