/*--------------------------------*- C++ -*----------------------------------*\
  =========                 |
  \\      /  F ield         | OpenFOAM: The Open Source CFD Toolbox
   \\    /   O peration     | Website:  https://openfoam.org
    \\  /    A nd           | Version:  7
     \\/     M anipulation  |
\*---------------------------------------------------------------------------*/
FoamFile
{
    version     2.0;
    format      ascii;
    class       featureEdgeMesh;
    location    "constant/triSurface";
    object      sa1.eMesh;
}
// * * * * * * * * * * * * * * * * * * * * * * * * * * * * * * * * * * * * * //


// points:

30
(
(0.0011515199 0.036460198 0.075208001)
(0.00178188 0.036184601 0.075653203)
(0.0023874999 0.042946301 0.077958196)
(0.00181542 0.043090198 0.077525698)
(0.0024155001 0.0360853 0.076148301)
(0.00058649399 0.0368842 0.074856199)
(-0.000265957 0.0379983 0.074452102)
(0.000123294 0.037392098 0.074610598)
(0.0047784802 0.039412599 0.078982197)
(0.00467424 0.040056001 0.079068303)
(0.0028957401 0.042690501 0.078308202)
(0.00126192 0.043093801 0.077071004)
(0.0044660098 0.0374633 0.078204297)
(0.0046830298 0.0380705 0.078545101)
(0.00076507003 0.042966802 0.076628096)
(0.0047877599 0.038750101 0.078812897)
(0.0044755898 0.040695399 0.079075597)
(0.0041694199 0.041327901 0.078992598)
(0.00381269 0.041858301 0.078840598)
(-0.00057628501 0.0387224 0.074390098)
(0.0041146399 0.036897901 0.077763997)
(-0.00013545 0.042296 0.075707696)
(-0.00048776501 0.0417317 0.075266898)
(0.00308916 0.036193799 0.076731801)
(0.0036428301 0.036459699 0.077258602)
(0.0033924 0.042311799 0.0786158)
(-0.00072217401 0.041053101 0.0748927)
(-0.00081590598 0.040298 0.074613802)
(0.000279075 0.042695899 0.0761557)
(-0.00076766103 0.0395074 0.074442297)
)


// edges:

30
(
(0 1)
(2 3)
(1 4)
(5 0)
(6 7)
(8 9)
(10 2)
(3 11)
(12 13)
(11 14)
(13 15)
(16 17)
(17 18)
(7 5)
(19 6)
(15 8)
(20 12)
(9 16)
(21 22)
(4 23)
(23 24)
(25 10)
(18 25)
(26 27)
(22 26)
(28 21)
(24 20)
(29 19)
(14 28)
(27 29)
)

// * * * * * * * * * * * * * * * * * * * * * * * * * * * * * * * * * * * * * //


// ************************************************************************* //
