/*--------------------------------*- C++ -*----------------------------------*\
  =========                 |
  \\      /  F ield         | OpenFOAM: The Open Source CFD Toolbox
   \\    /   O peration     | Website:  https://openfoam.org
    \\  /    A nd           | Version:  7
     \\/     M anipulation  |
\*---------------------------------------------------------------------------*/
FoamFile
{
    version     2.0;
    format      ascii;
    class       featureEdgeMesh;
    location    "constant/triSurface";
    object      sa2.eMesh;
}
// * * * * * * * * * * * * * * * * * * * * * * * * * * * * * * * * * * * * * //


// points:

26
(
(0.018803099 0.0368638 0.077068903)
(0.019286999 0.036840301 0.076829202)
(0.0198001 0.036932498 0.076640397)
(0.0203049 0.0371456 0.076522797)
(0.0216529 0.039359 0.077125996)
(0.021521401 0.039904699 0.077491902)
(0.0214263 0.038336098 0.076661699)
(0.021615701 0.038860802 0.076865502)
(0.0207316 0.037439499 0.0764869)
(0.0211307 0.0378442 0.076525703)
(0.0216507 0.039112002 0.076989301)
(0.0203098 0.040822402 0.078571104)
(0.0197668 0.040830102 0.078829698)
(0.0212366 0.040357102 0.077877603)
(0.020829201 0.040654201 0.078234099)
(0.017576201 0.0378967 0.078219503)
(0.017759001 0.037519298 0.077923499)
(0.017700501 0.0393163 0.078952998)
(0.0175457 0.038866598 0.078774802)
(0.017495699 0.038366798 0.078519396)
(0.0180285 0.0372179 0.077629097)
(0.018380901 0.036993701 0.077339098)
(0.017950799 0.039741501 0.079072997)
(0.019221 0.040700398 0.079012901)
(0.018284099 0.040120501 0.079128303)
(0.018727999 0.040463101 0.079111502)
)


// edges:

26
(
(0 1)
(1 2)
(2 3)
(4 5)
(6 7)
(3 8)
(8 9)
(10 4)
(11 12)
(13 14)
(15 16)
(5 13)
(17 18)
(19 15)
(20 21)
(9 6)
(22 17)
(16 20)
(21 0)
(12 23)
(7 10)
(24 22)
(14 11)
(18 19)
(23 25)
(25 24)
)

// * * * * * * * * * * * * * * * * * * * * * * * * * * * * * * * * * * * * * //


// ************************************************************************* //
