/*--------------------------------*- C++ -*----------------------------------*\
  =========                 |
  \\      /  F ield         | OpenFOAM: The Open Source CFD Toolbox
   \\    /   O peration     | Website:  https://openfoam.org
    \\  /    A nd           | Version:  7
     \\/     M anipulation  |
\*---------------------------------------------------------------------------*/
FoamFile
{
    version     2.0;
    format      ascii;
    class       featureEdgeMesh;
    location    "constant/triSurface";
    object      sa3.eMesh;
}
// * * * * * * * * * * * * * * * * * * * * * * * * * * * * * * * * * * * * * //


// points:

26
(
(0.0233087 0.0508544 0.072552398)
(0.0233282 0.0503482 0.072243303)
(0.023496 0.049867298 0.071921699)
(0.0234192 0.051314399 0.072809197)
(0.024044299 0.052198101 0.073225103)
(0.023672 0.051786002 0.073046297)
(0.0238031 0.049462501 0.071619697)
(0.027417099 0.052223898 0.072607502)
(0.027017601 0.052537698 0.072871901)
(0.024222599 0.049146201 0.071350098)
(0.0244643 0.052497499 0.073326901)
(0.024947099 0.052714098 0.073367)
(0.025741201 0.048880398 0.070904702)
(0.026306899 0.049021199 0.070883498)
(0.0260091 0.052855 0.0732527)
(0.025450001 0.052832201 0.073343903)
(0.024723301 0.048941199 0.071132503)
(0.0252227 0.048859902 0.070989601)
(0.026553901 0.052750301 0.073087201)
(0.026826199 0.049276099 0.070939802)
(0.0272307 0.049591798 0.071054399)
(0.0278484 0.051441599 0.072054602)
(0.0276876 0.051856499 0.072335102)
(0.0275515 0.049972501 0.0712239)
(0.027891001 0.0509471 0.071748197)
(0.027790301 0.050446901 0.071465299)
)


// edges:

26
(
(0 1)
(1 2)
(3 0)
(4 5)
(2 6)
(7 8)
(6 9)
(10 4)
(11 10)
(12 13)
(14 15)
(16 17)
(9 16)
(15 11)
(18 14)
(19 20)
(13 19)
(8 18)
(17 12)
(21 22)
(20 23)
(24 21)
(23 25)
(25 24)
(5 3)
(22 7)
)

// * * * * * * * * * * * * * * * * * * * * * * * * * * * * * * * * * * * * * //


// ************************************************************************* //
