/*--------------------------------*- C++ -*----------------------------------*\
  =========                 |
  \\      /  F ield         | OpenFOAM: The Open Source CFD Toolbox
   \\    /   O peration     | Website:  https://openfoam.org
    \\  /    A nd           | Version:  7
     \\/     M anipulation  |
\*---------------------------------------------------------------------------*/
FoamFile
{
    version     2.0;
    format      ascii;
    class       featureEdgeMesh;
    location    "constant/triSurface";
    object      wall.eMesh;
}
// * * * * * * * * * * * * * * * * * * * * * * * * * * * * * * * * * * * * * //


// points:

200
(
(0.0128282 0.039631099 0.065311901)
(0.0124021 0.0393975 0.065462999)
(0.0052487799 0.043954801 0.068155199)
(0.0052903299 0.044006199 0.068140902)
(0.0211413 0.072332799 0.020682801)
(0.0209668 0.071839102 0.020643)
(0.0208556 0.071327902 0.020597599)
(0.0213765 0.072801203 0.0207166)
(0.021668401 0.073236898 0.0207437)
(0.022012699 0.073632903 0.0207638)
(0.022403801 0.0739832 0.020776501)
(0.022835599 0.074282102 0.020781601)
(0.023301199 0.074524902 0.020779001)
(0.023793399 0.074707799 0.020768801)
(0.024304301 0.074827902 0.020751201)
(0.024826 0.074883401 0.020726301)
(0.025350099 0.074873298 0.020694699)
(0.025868399 0.074797802 0.0206568)
(0.0263728 0.074658103 0.020613199)
(0.026855201 0.074456401 0.020564601)
(0.027308101 0.074195899 0.0205118)
(0.0277244 0.073880702 0.0204555)
(0.0280974 0.073515698 0.0203967)
(0.0284213 0.073106803 0.020336401)
(0.028690999 0.072660297 0.020275399)
(0.028902199 0.072183304 0.020214699)
(0.0290516 0.071683399 0.020155299)
(0.029136799 0.071168303 0.020098099)
(0.0291565 0.070646301 0.020044001)
(0.029110501 0.070125602 0.019993899)
(0.028999301 0.069614403 0.0199486)
(0.0288247 0.069120601 0.0199087)
(0.028589601 0.068652302 0.019874901)
(0.028297599 0.0682166 0.019847799)
(0.027953399 0.067820497 0.019827699)
(0.0275623 0.067470297 0.0198151)
(0.027130499 0.067171402 0.01981)
(0.026664799 0.066928603 0.0198125)
(0.026172699 0.066745698 0.0198227)
(0.025661699 0.066625498 0.019840401)
(0.025140099 0.066570103 0.0198652)
(0.024615999 0.066580199 0.0198968)
(0.0240977 0.066655599 0.019934701)
(0.023593299 0.066795297 0.0199783)
(0.0231109 0.066996999 0.0200269)
(0.022657899 0.067257501 0.020079801)
(0.0222417 0.067572802 0.020136001)
(0.0218687 0.067937702 0.020194801)
(0.021544799 0.068346702 0.020255201)
(0.021275099 0.0687932 0.0203162)
(0.0210639 0.069270097 0.0203768)
(0.020914501 0.069770098 0.020436199)
(0.020829299 0.070285097 0.020493399)
(0.0208095 0.070807099 0.0205475)
(0.0049713599 0.043612201 0.06825)
(0.0123251 0.0393552 0.065490402)
(0.026553901 0.052750301 0.073087201)
(0.027017601 0.052537698 0.072871901)
(0.0234192 0.051314399 0.072809197)
(0.023672 0.051786002 0.073046297)
(0.0233087 0.0508544 0.072552398)
(0.0233282 0.0503482 0.072243303)
(0.0238031 0.049462501 0.071619697)
(0.023496 0.049867298 0.071921699)
(0.024222599 0.049146201 0.071350098)
(0.024723301 0.048941199 0.071132503)
(0.0252227 0.048859902 0.070989601)
(0.025741201 0.048880398 0.070904702)
(0.026306899 0.049021199 0.070883498)
(0.027790301 0.050446901 0.071465299)
(0.0275515 0.049972501 0.0712239)
(0.0278484 0.051441599 0.072054602)
(0.027891001 0.0509471 0.071748197)
(0.027417099 0.052223898 0.072607502)
(0.025450001 0.052832201 0.073343903)
(0.0260091 0.052855 0.0732527)
(0.0244643 0.052497499 0.073326901)
(0.024947099 0.052714098 0.073367)
(0.024044299 0.052198101 0.073225103)
(0.026826199 0.049276099 0.070939802)
(0.0272307 0.049591798 0.071054399)
(0.0276876 0.051856499 0.072335102)
(-0.00057628501 0.0387224 0.074390098)
(-0.00076766103 0.0395074 0.074442297)
(0.0046830298 0.0380705 0.078545101)
(0.0044660098 0.0374633 0.078204297)
(0.0047877599 0.038750101 0.078812897)
(0.00381269 0.041858301 0.078840598)
(0.0041694199 0.041327901 0.078992598)
(0.0033924 0.042311799 0.0786158)
(0.0023874999 0.042946301 0.077958196)
(0.0028957401 0.042690501 0.078308202)
(0.00181542 0.043090198 0.077525698)
(0.00126192 0.043093801 0.077071004)
(0.00076507003 0.042966802 0.076628096)
(-0.00048776501 0.0417317 0.075266898)
(-0.00013545 0.042296 0.075707696)
(-0.00081590598 0.040298 0.074613802)
(-0.00072217401 0.041053101 0.0748927)
(-0.000265957 0.0379983 0.074452102)
(0.000123294 0.037392098 0.074610598)
(0.00467424 0.040056001 0.079068303)
(0.0047784802 0.039412599 0.078982197)
(0.0044755898 0.040695399 0.079075597)
(0.000279075 0.042695899 0.0761557)
(0.00058649399 0.0368842 0.074856199)
(0.0036428301 0.036459699 0.077258602)
(0.00308916 0.036193799 0.076731801)
(0.019221 0.040700398 0.079012901)
(0.0197668 0.040830102 0.078829698)
(0.018727999 0.040463101 0.079111502)
(0.018284099 0.040120501 0.079128303)
(0.017950799 0.039741501 0.079072997)
(0.0175457 0.038866598 0.078774802)
(0.017700501 0.0393163 0.078952998)
(0.017495699 0.038366798 0.078519396)
(0.017759001 0.037519298 0.077923499)
(0.017576201 0.0378967 0.078219503)
(0.018380901 0.036993701 0.077339098)
(0.0180285 0.0372179 0.077629097)
(0.0211307 0.0378442 0.076525703)
(0.0207316 0.037439499 0.0764869)
(0.0216507 0.039112002 0.076989301)
(0.021615701 0.038860802 0.076865502)
(0.0216529 0.039359 0.077125996)
(0.021521401 0.039904699 0.077491902)
(0.0212366 0.040357102 0.077877603)
(0.0203098 0.040822402 0.078571104)
(0.0198001 0.036932498 0.076640397)
(0.019286999 0.036840301 0.076829202)
(0.0203049 0.0371456 0.076522797)
(0.0214263 0.038336098 0.076661699)
(0.020829201 0.040654201 0.078234099)
(0.0041146399 0.036897901 0.077763997)
(0.018803099 0.0368638 0.077068903)
(0.0011515199 0.036460198 0.075208001)
(0.00178188 0.036184601 0.075653203)
(0.0024155001 0.0360853 0.076148301)
(0.00665781 0.039704401 0.033216801)
(0.00653787 0.0390389 0.0332864)
(0.0068505001 0.0403556 0.033189502)
(0.0071128998 0.0409825 0.033205099)
(0.0082718898 0.042620499 0.033502601)
(0.0078292396 0.042123899 0.033362798)
(0.0087618297 0.043056902 0.033680201)
(0.0092913397 0.043426201 0.033892799)
(0.0098520704 0.043722801 0.0341371)
(0.0104352 0.0439418 0.034409299)
(0.0110315 0.044079799 0.034704901)
(0.0116315 0.044134598 0.035019498)
(0.0122259 0.0441055 0.035347998)
(0.0128052 0.043992698 0.035685301)
(0.0133603 0.043798201 0.0360259)
(0.0138824 0.043524899 0.0363646)
(0.0143634 0.043177299 0.036696099)
(0.0147956 0.0427607 0.037014998)
(0.0151722 0.042281698 0.0373163)
(0.0154873 0.041747998 0.037595399)
(0.0157359 0.0411679 0.037847701)
(0.015914001 0.0405505 0.038069401)
(0.016019 0.0399056 0.038256899)
(0.016049 0.0392434 0.038407199)
(0.0160037 0.038574301 0.038518101)
(0.0158838 0.0379088 0.038587701)
(0.0156911 0.037257601 0.038614899)
(0.0154287 0.036630701 0.038599402)
(0.0151007 0.036038201 0.038541298)
(0.0147124 0.035489298 0.038441598)
(0.0142697 0.034992799 0.0383019)
(0.0137798 0.034556299 0.038124301)
(0.0132503 0.034187 0.037911698)
(0.0126895 0.0338904 0.037667301)
(0.0121064 0.033671401 0.037395202)
(0.0115101 0.033533402 0.037099499)
(0.0109101 0.033478599 0.036784898)
(0.0103157 0.033507701 0.036456399)
(0.0097364197 0.033620499 0.0361192)
(0.0091813197 0.033815 0.0357785)
(0.0086591598 0.034088299 0.0354398)
(0.0081781996 0.034435902 0.035108399)
(0.0077459998 0.034852501 0.034789499)
(0.0073694 0.035331499 0.034488101)
(0.0070543201 0.035865199 0.034209099)
(0.0068057398 0.036445301 0.033956699)
(0.0066275699 0.037062701 0.0337351)
(0.0065226299 0.037707601 0.033547599)
(0.00649257 0.038369801 0.033397201)
(0.0074408702 0.041575 0.033263098)
(0.0108776 0.044073898 0.054182701)
(0.0106642 0.044240899 0.053728599)
(0.016984999 0.052616298 0.063359797)
(0.0165851 0.052138701 0.0635674)
(0.0150368 0.050449599 0.064201802)
(0.0154629 0.0509611 0.0638327)
(0.016224699 0.0517045 0.0638109)
(0.0103876 0.044458698 0.053257599)
(0.011147 0.043613698 0.054536)
(0.0113924 0.0433628 0.055196099)
(0.0222422 0.0494393 0.0612887)
(0.021873999 0.048961598 0.061609499)
)


// edges:

195
(
(188 189)
(190 191)
(192 193)
(194 191)
(195 189)
(196 197)
(198 199)
(0 1)
(2 3)
(4 5)
(5 6)
(7 4)
(8 7)
(9 8)
(10 9)
(11 10)
(12 11)
(13 12)
(14 13)
(15 14)
(16 15)
(17 16)
(18 17)
(19 18)
(20 19)
(21 20)
(22 21)
(23 22)
(24 23)
(25 24)
(26 25)
(27 26)
(28 27)
(29 28)
(30 29)
(31 30)
(32 31)
(33 32)
(34 33)
(35 34)
(36 35)
(37 36)
(38 37)
(39 38)
(40 39)
(41 40)
(42 41)
(43 42)
(44 43)
(45 44)
(46 45)
(47 46)
(48 47)
(49 48)
(50 49)
(51 50)
(52 51)
(53 52)
(6 53)
(3 54)
(55 0)
(56 57)
(58 59)
(60 58)
(61 60)
(62 63)
(64 62)
(65 64)
(66 65)
(67 66)
(68 67)
(69 70)
(71 72)
(57 73)
(74 75)
(76 77)
(77 74)
(78 76)
(59 78)
(63 61)
(79 68)
(80 79)
(70 80)
(72 69)
(81 71)
(73 81)
(75 56)
(82 83)
(84 85)
(86 84)
(87 88)
(89 87)
(90 91)
(92 90)
(93 92)
(94 93)
(95 96)
(97 98)
(98 95)
(83 97)
(99 82)
(100 99)
(101 102)
(103 101)
(88 103)
(91 89)
(96 104)
(105 100)
(106 107)
(108 109)
(110 108)
(111 110)
(112 111)
(113 114)
(115 113)
(116 117)
(118 119)
(120 121)
(122 123)
(124 122)
(125 124)
(126 125)
(109 127)
(119 116)
(128 129)
(130 128)
(121 130)
(131 120)
(123 131)
(132 126)
(133 106)
(127 132)
(134 118)
(129 134)
(117 115)
(114 112)
(135 105)
(136 135)
(85 133)
(102 86)
(104 94)
(107 137)
(137 136)
(54 2)
(138 139)
(140 138)
(141 140)
(142 143)
(144 142)
(145 144)
(146 145)
(147 146)
(148 147)
(149 148)
(150 149)
(151 150)
(152 151)
(153 152)
(154 153)
(155 154)
(156 155)
(157 156)
(158 157)
(159 158)
(160 159)
(161 160)
(162 161)
(163 162)
(164 163)
(165 164)
(166 165)
(167 166)
(168 167)
(169 168)
(170 169)
(171 170)
(172 171)
(173 172)
(174 173)
(175 174)
(176 175)
(177 176)
(178 177)
(179 178)
(180 179)
(181 180)
(182 181)
(183 182)
(184 183)
(185 184)
(186 185)
(139 186)
(1 55)
(187 141)
(143 187)
)

// * * * * * * * * * * * * * * * * * * * * * * * * * * * * * * * * * * * * * //


// ************************************************************************* //
