/*--------------------------------*- C++ -*----------------------------------*\
  =========                 |
  \\      /  F ield         | OpenFOAM: The Open Source CFD Toolbox
   \\    /   O peration     | Website:  https://openfoam.org
    \\  /    A nd           | Version:  7
     \\/     M anipulation  |
\*---------------------------------------------------------------------------*/
FoamFile
{
    version     2.0;
    format      ascii;
    class       extendedFeatureEdgeMesh;
    location    "constant/extendedFeatureEdgeMesh";
    object      inlet.extendedFeatureEdgeMesh;
}
// * * * * * * * * * * * * * * * * * * * * * * * * * * * * * * * * * * * * * //

// points

50
(
(0.0154873 0.041747998 0.037595399)
(0.0157359 0.0411679 0.037847701)
(0.0097364197 0.033620499 0.0361192)
(0.0091813197 0.033815 0.0357785)
(0.0070543201 0.035865199 0.034209099)
(0.0068057398 0.036445301 0.033956699)
(0.0151007 0.036038201 0.038541298)
(0.0147124 0.035489298 0.038441598)
(0.0116315 0.044134598 0.035019498)
(0.0122259 0.0441055 0.035347998)
(0.0103157 0.033507701 0.036456399)
(0.0109101 0.033478599 0.036784898)
(0.0074408702 0.041575 0.033263098)
(0.0078292396 0.042123899 0.033362798)
(0.0128052 0.043992698 0.035685301)
(0.0133603 0.043798201 0.0360259)
(0.0138824 0.043524899 0.0363646)
(0.0151722 0.042281698 0.0373163)
(0.00665781 0.039704401 0.033216801)
(0.0068505001 0.0403556 0.033189502)
(0.0086591598 0.034088299 0.0354398)
(0.0081781996 0.034435902 0.035108399)
(0.0071128998 0.0409825 0.033205099)
(0.016049 0.0392434 0.038407199)
(0.0160037 0.038574301 0.038518101)
(0.0137798 0.034556299 0.038124301)
(0.0132503 0.034187 0.037911698)
(0.0073694 0.035331499 0.034488101)
(0.0115101 0.033533402 0.037099499)
(0.0092913397 0.043426201 0.033892799)
(0.0098520704 0.043722801 0.0341371)
(0.0066275699 0.037062701 0.0337351)
(0.0126895 0.0338904 0.037667301)
(0.0121064 0.033671401 0.037395202)
(0.0142697 0.034992799 0.0383019)
(0.0143634 0.043177299 0.036696099)
(0.0082718898 0.042620499 0.033502601)
(0.0087618297 0.043056902 0.033680201)
(0.0077459998 0.034852501 0.034789499)
(0.016019 0.0399056 0.038256899)
(0.0065226299 0.037707601 0.033547599)
(0.0147956 0.0427607 0.037014998)
(0.015914001 0.0405505 0.038069401)
(0.0104352 0.0439418 0.034409299)
(0.0110315 0.044079799 0.034704901)
(0.0154287 0.036630701 0.038599402)
(0.00649257 0.038369801 0.033397201)
(0.00653787 0.0390389 0.0332864)
(0.0158838 0.0379088 0.038587701)
(0.0156911 0.037257601 0.038614899)
)

// edges

50
(
(0 1)
(2 3)
(4 5)
(6 7)
(8 9)
(10 2)
(11 10)
(12 13)
(14 15)
(15 16)
(17 0)
(18 19)
(20 21)
(9 14)
(19 22)
(3 20)
(23 24)
(22 12)
(25 26)
(27 4)
(28 11)
(29 30)
(5 31)
(32 33)
(33 28)
(7 34)
(16 35)
(36 37)
(21 38)
(39 23)
(31 40)
(35 41)
(1 42)
(43 44)
(38 27)
(45 6)
(44 8)
(30 43)
(34 25)
(13 36)
(37 29)
(41 17)
(42 39)
(46 47)
(24 48)
(48 49)
(47 18)
(49 45)
(26 32)
(40 46)
)

// concaveStart mixedStart nonFeatureStart
0 0 0
// internalStart flatStart openStart multipleStart
0 0 0 50
// normals

50
(
(0.46966591 -0.17507607 -0.86531052)
(0.46971005 -0.17513208 -0.86527523)
(0.46971688 -0.17519124 -0.86525955)
(0.46970947 -0.17511275 -0.86527946)
(0.46962548 -0.17530444 -0.86528623)
(0.46958964 -0.17520182 -0.86532647)
(0.46964093 -0.1751728 -0.86530451)
(0.46974536 -0.17520566 -0.86524116)
(0.4696021 -0.17510742 -0.86533881)
(0.46963088 -0.17520518 -0.86530341)
(0.46965582 -0.17521499 -0.86528788)
(0.46961446 -0.17523363 -0.86530656)
(0.46965656 -0.1751342 -0.86530384)
(0.46971802 -0.17510547 -0.86527629)
(0.46968007 -0.17506327 -0.86530543)
(0.46962025 -0.17514588 -0.86532118)
(0.46975888 -0.17521423 -0.86523209)
(0.46964383 -0.17526343 -0.86528458)
(0.46962875 -0.1752047 -0.86530466)
(0.46963454 -0.17510573 -0.86532155)
(0.46969504 -0.17508133 -0.86529365)
(0.46963501 -0.17512064 -0.86531827)
(0.46966284 -0.17504662 -0.86531815)
(0.46959864 -0.17520786 -0.86532036)
(0.46964804 -0.17524685 -0.86528565)
(0.46959425 -0.1752386 -0.86531652)
(0.46972758 -0.17517934 -0.86525615)
(0.46965948 -0.17513078 -0.86530294)
(0.4696599 -0.17512779 -0.86530332)
(0.46973164 -0.1751108 -0.86526781)
(0.46963701 -0.17516326 -0.86530857)
(0.4697008 -0.17507542 -0.86529171)
(0.46963315 -0.17524062 -0.86529499)
(0.46952639 -0.17518256 -0.86536468)
(0.46971907 -0.17514509 -0.8652677)
(0.46964972 -0.17513539 -0.8653073)
(0.46968941 -0.17513331 -0.86528618)
(0.46967309 -0.17509422 -0.86530295)
(0.46969322 -0.17509086 -0.86529271)
(0.46976774 -0.17515083 -0.86524011)
(0.46958537 -0.17514224 -0.86534084)
(0.4696255 -0.17508228 -0.8653312)
(0.46973146 -0.17508926 -0.86527227)
(0.46974225 -0.17508905 -0.86526646)
(0.46980006 -0.17512922 -0.86522694)
(0.46961392 -0.17510795 -0.86533229)
(0.46962198 -0.17513506 -0.86532243)
(0.4696013 -0.17516895 -0.86532679)
(0.4697422 -0.17521324 -0.86524134)
(0.4697373 -0.17519015 -0.86524868)
)

// normal volume types

50
(
0
0
0
0
0
0
0
0
0
0
0
0
0
0
0
0
0
0
0
0
0
0
0
0
0
0
0
0
0
0
0
0
0
0
0
0
0
0
0
0
0
0
0
0
0
0
0
0
0
0
)

// normalDirections

50
(
1(1)
1(1)
1(1)
1(1)
1(1)
1(1)
1(1)
1(1)
1(1)
1(1)
1(1)
1(1)
1(1)
1(1)
1(1)
1(1)
1(1)
1(1)
1(1)
1(1)
1(1)
1(1)
1(1)
1(1)
1(1)
1(1)
1(1)
1(1)
1(1)
1(1)
1(1)
1(1)
1(1)
1(1)
1(1)
1(1)
1(1)
1(1)
1(1)
1(1)
1(1)
1(1)
1(1)
1(1)
1(1)
1(1)
1(1)
1(1)
1(1)
1(1)
)

// edgeNormals

50
(
1(0)
1(1)
1(2)
1(3)
1(4)
1(5)
1(6)
1(7)
1(8)
1(9)
1(10)
1(11)
1(12)
1(13)
1(14)
1(15)
1(16)
1(17)
1(18)
1(19)
1(20)
1(21)
1(22)
1(23)
1(24)
1(25)
1(26)
1(27)
1(28)
1(29)
1(30)
1(31)
1(32)
1(33)
1(34)
1(35)
1(36)
1(37)
1(38)
1(39)
1(40)
1(41)
1(42)
1(43)
1(44)
1(45)
1(46)
1(47)
1(48)
1(49)
)

// featurePointNormals
0()
// featurePointEdges
0()
// regionEdges

50
(
0
1
2
3
4
5
6
7
8
9
10
11
12
13
14
15
16
17
18
19
20
21
22
23
24
25
26
27
28
29
30
31
32
33
34
35
36
37
38
39
40
41
42
43
44
45
46
47
48
49
)



// ************************************************************************* //
