/*--------------------------------*- C++ -*----------------------------------*\
  =========                 |
  \\      /  F ield         | OpenFOAM: The Open Source CFD Toolbox
   \\    /   O peration     | Website:  https://openfoam.org
    \\  /    A nd           | Version:  7
     \\/     M anipulation  |
\*---------------------------------------------------------------------------*/
FoamFile
{
    version     2.0;
    format      ascii;
    class       extendedFeatureEdgeMesh;
    location    "constant/extendedFeatureEdgeMesh";
    object      outlet.extendedFeatureEdgeMesh;
}
// * * * * * * * * * * * * * * * * * * * * * * * * * * * * * * * * * * * * * //

// points

50
(
(0.0291565 0.070646301 0.020044001)
(0.029110501 0.070125602 0.019993899)
(0.027130499 0.067171402 0.01981)
(0.026664799 0.066928603 0.0198125)
(0.0263728 0.074658103 0.020613199)
(0.026855201 0.074456401 0.020564601)
(0.0208095 0.070807099 0.0205475)
(0.0208556 0.071327902 0.020597599)
(0.027308101 0.074195899 0.0205118)
(0.021275099 0.0687932 0.0203162)
(0.0210639 0.069270097 0.0203768)
(0.020829299 0.070285097 0.020493399)
(0.0290516 0.071683399 0.020155299)
(0.029136799 0.071168303 0.020098099)
(0.021668401 0.073236898 0.0207437)
(0.022012699 0.073632903 0.0207638)
(0.024826 0.074883401 0.020726301)
(0.025350099 0.074873298 0.020694699)
(0.0211413 0.072332799 0.020682801)
(0.0213765 0.072801203 0.0207166)
(0.0240977 0.066655599 0.019934701)
(0.023593299 0.066795297 0.0199783)
(0.025140099 0.066570103 0.0198652)
(0.024615999 0.066580199 0.0198968)
(0.021544799 0.068346702 0.020255201)
(0.026172699 0.066745698 0.0198227)
(0.025661699 0.066625498 0.019840401)
(0.028902199 0.072183304 0.020214699)
(0.025868399 0.074797802 0.0206568)
(0.028999301 0.069614403 0.0199486)
(0.022835599 0.074282102 0.020781601)
(0.023301199 0.074524902 0.020779001)
(0.0288247 0.069120601 0.0199087)
(0.023793399 0.074707799 0.020768801)
(0.024304301 0.074827902 0.020751201)
(0.022657899 0.067257501 0.020079801)
(0.0222417 0.067572802 0.020136001)
(0.028589601 0.068652302 0.019874901)
(0.028297599 0.0682166 0.019847799)
(0.027953399 0.067820497 0.019827699)
(0.0209668 0.071839102 0.020643)
(0.0231109 0.066996999 0.0200269)
(0.0218687 0.067937702 0.020194801)
(0.0284213 0.073106803 0.020336401)
(0.028690999 0.072660297 0.020275399)
(0.022403801 0.0739832 0.020776501)
(0.020914501 0.069770098 0.020436199)
(0.0275623 0.067470297 0.0198151)
(0.0277244 0.073880702 0.0204555)
(0.0280974 0.073515698 0.0203967)
)

// edges

50
(
(0 1)
(2 3)
(4 5)
(6 7)
(5 8)
(9 10)
(11 6)
(12 13)
(14 15)
(16 17)
(18 19)
(20 21)
(22 23)
(24 9)
(25 26)
(27 12)
(28 4)
(23 20)
(1 29)
(30 31)
(19 14)
(29 32)
(17 28)
(33 34)
(35 36)
(37 38)
(38 39)
(40 18)
(31 33)
(21 41)
(36 42)
(43 44)
(41 35)
(26 22)
(42 24)
(32 37)
(15 45)
(10 46)
(46 11)
(47 2)
(8 48)
(48 49)
(49 43)
(44 27)
(3 25)
(34 16)
(7 40)
(39 47)
(13 0)
(45 30)
)

// concaveStart mixedStart nonFeatureStart
0 0 0
// internalStart flatStart openStart multipleStart
0 0 0 50
// normals

50
(
(-0.057931263 0.10068603 -0.99323023)
(-0.057903604 0.10083635 -0.99321659)
(-0.057942868 0.10072942 -0.99322515)
(-0.058004465 0.10067963 -0.99322661)
(-0.057921682 0.10061575 -0.99323791)
(-0.057955333 0.1005452 -0.99324309)
(-0.058010396 0.10073733 -0.99322041)
(-0.057942992 0.10071106 -0.99322701)
(-0.057904736 0.10075648 -0.99322463)
(-0.057950516 0.100579 -0.99323995)
(-0.057889367 0.10073849 -0.99322735)
(-0.057959314 0.10070908 -0.99322626)
(-0.057945096 0.10071061 -0.99322693)
(-0.0580092 0.10065358 -0.99322897)
(-0.058100575 0.10073835 -0.99321504)
(-0.057967258 0.1006935 -0.99322737)
(-0.05795587 0.10073403 -0.99322393)
(-0.057979729 0.10070909 -0.99322506)
(-0.057890061 0.10060794 -0.99324055)
(-0.058088454 0.10075541 -0.99321401)
(-0.058006756 0.10064008 -0.99323048)
(-0.05783237 0.10070297 -0.99323428)
(-0.057967319 0.10064425 -0.99323236)
(-0.057928832 0.1008736 -0.99321134)
(-0.057882369 0.10063134 -0.99323862)
(-0.058131797 0.10073872 -0.99321317)
(-0.058039793 0.10083397 -0.99320889)
(-0.058044931 0.10058892 -0.99323343)
(-0.057955707 0.10057538 -0.99324002)
(-0.057966372 0.10068371 -0.99322842)
(-0.058078389 0.10068027 -0.99322222)
(-0.057918309 0.10071088 -0.99322847)
(-0.058038979 0.10076838 -0.99321559)
(-0.057915998 0.10068782 -0.99323094)
(-0.058079363 0.10068138 -0.99322205)
(-0.058081062 0.10084316 -0.99320554)
(-0.058044918 0.10081913 -0.99321009)
(-0.057792935 0.1007271 -0.99323413)
(-0.057800887 0.10075374 -0.99323096)
(-0.057921742 0.10062417 -0.99323706)
(-0.058081296 0.10069712 -0.99322034)
(-0.058059697 0.10067093 -0.99322426)
(-0.057856083 0.10064238 -0.99323904)
(-0.057927767 0.10074408 -0.99322455)
(-0.058044771 0.10078048 -0.99321402)
(-0.058136932 0.10089351 -0.99319716)
(-0.057967865 0.10081799 -0.99321471)
(-0.058136379 0.10065869 -0.99322102)
(-0.057951203 0.10074725 -0.99322286)
(-0.058043728 0.1007971 -0.9932124)
)

// normal volume types

50
(
0
0
0
0
0
0
0
0
0
0
0
0
0
0
0
0
0
0
0
0
0
0
0
0
0
0
0
0
0
0
0
0
0
0
0
0
0
0
0
0
0
0
0
0
0
0
0
0
0
0
)

// normalDirections

50
(
1(1)
1(1)
1(1)
1(1)
1(1)
1(1)
1(1)
1(1)
1(1)
1(1)
1(1)
1(1)
1(1)
1(1)
1(1)
1(1)
1(1)
1(1)
1(1)
1(1)
1(1)
1(1)
1(1)
1(1)
1(1)
1(1)
1(1)
1(1)
1(1)
1(1)
1(1)
1(1)
1(1)
1(1)
1(1)
1(1)
1(1)
1(1)
1(1)
1(1)
1(1)
1(1)
1(1)
1(1)
1(1)
1(1)
1(1)
1(1)
1(1)
1(1)
)

// edgeNormals

50
(
1(0)
1(1)
1(2)
1(3)
1(4)
1(5)
1(6)
1(7)
1(8)
1(9)
1(10)
1(11)
1(12)
1(13)
1(14)
1(15)
1(16)
1(17)
1(18)
1(19)
1(20)
1(21)
1(22)
1(23)
1(24)
1(25)
1(26)
1(27)
1(28)
1(29)
1(30)
1(31)
1(32)
1(33)
1(34)
1(35)
1(36)
1(37)
1(38)
1(39)
1(40)
1(41)
1(42)
1(43)
1(44)
1(45)
1(46)
1(47)
1(48)
1(49)
)

// featurePointNormals
0()
// featurePointEdges
0()
// regionEdges

50
(
0
1
2
3
4
5
6
7
8
9
10
11
12
13
14
15
16
17
18
19
20
21
22
23
24
25
26
27
28
29
30
31
32
33
34
35
36
37
38
39
40
41
42
43
44
45
46
47
48
49
)



// ************************************************************************* //
