/*--------------------------------*- C++ -*----------------------------------*\
  =========                 |
  \\      /  F ield         | OpenFOAM: The Open Source CFD Toolbox
   \\    /   O peration     | Website:  https://openfoam.org
    \\  /    A nd           | Version:  7
     \\/     M anipulation  |
\*---------------------------------------------------------------------------*/
FoamFile
{
    version     2.0;
    format      ascii;
    class       extendedFeatureEdgeMesh;
    location    "constant/extendedFeatureEdgeMesh";
    object      sa1.extendedFeatureEdgeMesh;
}
// * * * * * * * * * * * * * * * * * * * * * * * * * * * * * * * * * * * * * //

// points

30
(
(0.0011515199 0.036460198 0.075208001)
(0.00178188 0.036184601 0.075653203)
(0.0023874999 0.042946301 0.077958196)
(0.00181542 0.043090198 0.077525698)
(0.0024155001 0.0360853 0.076148301)
(0.00058649399 0.0368842 0.074856199)
(-0.000265957 0.0379983 0.074452102)
(0.000123294 0.037392098 0.074610598)
(0.0047784802 0.039412599 0.078982197)
(0.00467424 0.040056001 0.079068303)
(0.0028957401 0.042690501 0.078308202)
(0.00126192 0.043093801 0.077071004)
(0.0044660098 0.0374633 0.078204297)
(0.0046830298 0.0380705 0.078545101)
(0.00076507003 0.042966802 0.076628096)
(0.0047877599 0.038750101 0.078812897)
(0.0044755898 0.040695399 0.079075597)
(0.0041694199 0.041327901 0.078992598)
(0.00381269 0.041858301 0.078840598)
(-0.00057628501 0.0387224 0.074390098)
(0.0041146399 0.036897901 0.077763997)
(-0.00013545 0.042296 0.075707696)
(-0.00048776501 0.0417317 0.075266898)
(0.00308916 0.036193799 0.076731801)
(0.0036428301 0.036459699 0.077258602)
(0.0033924 0.042311799 0.0786158)
(-0.00072217401 0.041053101 0.0748927)
(-0.00081590598 0.040298 0.074613802)
(0.000279075 0.042695899 0.0761557)
(-0.00076766103 0.0395074 0.074442297)
)

// edges

30
(
(0 1)
(2 3)
(1 4)
(5 0)
(6 7)
(8 9)
(10 2)
(3 11)
(12 13)
(11 14)
(13 15)
(16 17)
(17 18)
(7 5)
(19 6)
(15 8)
(20 12)
(9 16)
(21 22)
(4 23)
(23 24)
(25 10)
(18 25)
(26 27)
(22 26)
(28 21)
(24 20)
(29 19)
(14 28)
(27 29)
)

// concaveStart mixedStart nonFeatureStart
0 0 0
// internalStart flatStart openStart multipleStart
0 0 0 30
// normals

30
(
(-0.6224083 -0.2021225 0.75614443)
(-0.62245749 -0.20200364 0.7561357)
(-0.6224756 -0.20201852 0.75611682)
(-0.62240087 -0.20199379 0.75618494)
(-0.6224656 -0.20199805 0.75613052)
(-0.62243475 -0.20203782 0.75614529)
(-0.62242662 -0.20205701 0.75614686)
(-0.62247446 -0.20193658 0.75613964)
(-0.62237301 -0.20199518 0.7562075)
(-0.62244973 -0.20193207 0.75616121)
(-0.62238886 -0.20205788 0.7561777)
(-0.62240327 -0.20205425 0.75616681)
(-0.62250207 -0.20199536 0.75610121)
(-0.62240627 -0.20196568 0.75618801)
(-0.62250027 -0.20204245 0.75609012)
(-0.62241711 -0.20195822 0.75618107)
(-0.62245576 -0.20200667 0.75613632)
(-0.62239672 -0.20199471 0.75618812)
(-0.62248501 -0.20199232 0.75611607)
(-0.62241459 -0.20205135 0.75615827)
(-0.62246448 -0.20194727 0.75614501)
(-0.62236943 -0.20200112 0.75620886)
(-0.6224096 -0.20199581 0.75617722)
(-0.6224493 -0.20201529 0.75613934)
(-0.62241149 -0.20197834 0.75618032)
(-0.62237604 -0.20202286 0.75619762)
(-0.62242307 -0.20196511 0.75617433)
(-0.62240537 -0.20201875 0.75617457)
(-0.62242278 -0.20198262 0.75616989)
(-0.62244917 -0.20201341 0.75613994)
)

// normal volume types

30
(
0
0
0
0
0
0
0
0
0
0
0
0
0
0
0
0
0
0
0
0
0
0
0
0
0
0
0
0
0
0
)

// normalDirections

30
(
1(1)
1(1)
1(1)
1(1)
1(1)
1(1)
1(1)
1(1)
1(1)
1(1)
1(1)
1(1)
1(1)
1(1)
1(1)
1(1)
1(1)
1(1)
1(1)
1(1)
1(1)
1(1)
1(1)
1(1)
1(1)
1(1)
1(1)
1(1)
1(1)
1(1)
)

// edgeNormals

30
(
1(0)
1(1)
1(2)
1(3)
1(4)
1(5)
1(6)
1(7)
1(8)
1(9)
1(10)
1(11)
1(12)
1(13)
1(14)
1(15)
1(16)
1(17)
1(18)
1(19)
1(20)
1(21)
1(22)
1(23)
1(24)
1(25)
1(26)
1(27)
1(28)
1(29)
)

// featurePointNormals
0()
// featurePointEdges
0()
// regionEdges

30
(
0
1
2
3
4
5
6
7
8
9
10
11
12
13
14
15
16
17
18
19
20
21
22
23
24
25
26
27
28
29
)



// ************************************************************************* //
