/*--------------------------------*- C++ -*----------------------------------*\
  =========                 |
  \\      /  F ield         | OpenFOAM: The Open Source CFD Toolbox
   \\    /   O peration     | Website:  https://openfoam.org
    \\  /    A nd           | Version:  7
     \\/     M anipulation  |
\*---------------------------------------------------------------------------*/
FoamFile
{
    version     2.0;
    format      ascii;
    class       extendedFeatureEdgeMesh;
    location    "constant/extendedFeatureEdgeMesh";
    object      sa2.extendedFeatureEdgeMesh;
}
// * * * * * * * * * * * * * * * * * * * * * * * * * * * * * * * * * * * * * //

// points

26
(
(0.018803099 0.0368638 0.077068903)
(0.019286999 0.036840301 0.076829202)
(0.0198001 0.036932498 0.076640397)
(0.0203049 0.0371456 0.076522797)
(0.0216529 0.039359 0.077125996)
(0.021521401 0.039904699 0.077491902)
(0.0214263 0.038336098 0.076661699)
(0.021615701 0.038860802 0.076865502)
(0.0207316 0.037439499 0.0764869)
(0.0211307 0.0378442 0.076525703)
(0.0216507 0.039112002 0.076989301)
(0.0203098 0.040822402 0.078571104)
(0.0197668 0.040830102 0.078829698)
(0.0212366 0.040357102 0.077877603)
(0.020829201 0.040654201 0.078234099)
(0.017576201 0.0378967 0.078219503)
(0.017759001 0.037519298 0.077923499)
(0.017700501 0.0393163 0.078952998)
(0.0175457 0.038866598 0.078774802)
(0.017495699 0.038366798 0.078519396)
(0.0180285 0.0372179 0.077629097)
(0.018380901 0.036993701 0.077339098)
(0.017950799 0.039741501 0.079072997)
(0.019221 0.040700398 0.079012901)
(0.018284099 0.040120501 0.079128303)
(0.018727999 0.040463101 0.079111502)
)

// edges

26
(
(0 1)
(1 2)
(2 3)
(4 5)
(6 7)
(3 8)
(8 9)
(10 4)
(11 12)
(13 14)
(15 16)
(5 13)
(17 18)
(19 15)
(20 21)
(9 6)
(22 17)
(16 20)
(21 0)
(12 23)
(7 10)
(24 22)
(14 11)
(18 19)
(23 25)
(25 24)
)

// concaveStart mixedStart nonFeatureStart
0 0 0
// internalStart flatStart openStart multipleStart
0 0 0 26
// normals

26
(
(0.37853141 -0.45083889 0.80836765)
(0.37847378 -0.45083105 0.80839902)
(0.37862276 -0.45080524 0.80834364)
(0.37859485 -0.45079624 0.80836173)
(0.37854056 -0.45066087 0.80846263)
(0.37853184 -0.45084085 0.80836636)
(0.37855944 -0.45082584 0.80836181)
(0.37860021 -0.45075421 0.80838266)
(0.37857748 -0.45080518 0.80836488)
(0.37857026 -0.45083795 0.80834999)
(0.37850174 -0.45074079 0.80843625)
(0.37862977 -0.45080331 0.80834144)
(0.37873564 -0.45068553 0.80835751)
(0.37858834 -0.45083978 0.8083405)
(0.37842084 -0.45085728 0.80840917)
(0.37850236 -0.45093482 0.80832775)
(0.37845778 -0.45091572 0.80835928)
(0.37872864 -0.45085842 0.80826438)
(0.37856636 -0.45090401 0.80831497)
(0.37848069 -0.45084338 0.8083889)
(0.37865084 -0.45105666 0.80819022)
(0.37852155 -0.450841 0.8083711)
(0.3785307 -0.45079226 0.80839399)
(0.37858152 -0.45092618 0.8082955)
(0.37867632 -0.45087118 0.80828178)
(0.37852113 -0.45079866 0.8083949)
)

// normal volume types

26
(
0
0
0
0
0
0
0
0
0
0
0
0
0
0
0
0
0
0
0
0
0
0
0
0
0
0
)

// normalDirections

26
(
1(1)
1(1)
1(1)
1(1)
1(1)
1(1)
1(1)
1(1)
1(1)
1(1)
1(1)
1(1)
1(1)
1(1)
1(1)
1(1)
1(1)
1(1)
1(1)
1(1)
1(1)
1(1)
1(1)
1(1)
1(1)
1(1)
)

// edgeNormals

26
(
1(0)
1(1)
1(2)
1(3)
1(4)
1(5)
1(6)
1(7)
1(8)
1(9)
1(10)
1(11)
1(12)
1(13)
1(14)
1(15)
1(16)
1(17)
1(18)
1(19)
1(20)
1(21)
1(22)
1(23)
1(24)
1(25)
)

// featurePointNormals
0()
// featurePointEdges
0()
// regionEdges

26
(
0
1
2
3
4
5
6
7
8
9
10
11
12
13
14
15
16
17
18
19
20
21
22
23
24
25
)



// ************************************************************************* //
