/*--------------------------------*- C++ -*----------------------------------*\
  =========                 |
  \\      /  F ield         | OpenFOAM: The Open Source CFD Toolbox
   \\    /   O peration     | Website:  https://openfoam.org
    \\  /    A nd           | Version:  7
     \\/     M anipulation  |
\*---------------------------------------------------------------------------*/
FoamFile
{
    version     2.0;
    format      ascii;
    class       extendedFeatureEdgeMesh;
    location    "constant/extendedFeatureEdgeMesh";
    object      sa3.extendedFeatureEdgeMesh;
}
// * * * * * * * * * * * * * * * * * * * * * * * * * * * * * * * * * * * * * //

// points

26
(
(0.0233087 0.0508544 0.072552398)
(0.0233282 0.0503482 0.072243303)
(0.023496 0.049867298 0.071921699)
(0.0234192 0.051314399 0.072809197)
(0.024044299 0.052198101 0.073225103)
(0.023672 0.051786002 0.073046297)
(0.0238031 0.049462501 0.071619697)
(0.027417099 0.052223898 0.072607502)
(0.027017601 0.052537698 0.072871901)
(0.024222599 0.049146201 0.071350098)
(0.0244643 0.052497499 0.073326901)
(0.024947099 0.052714098 0.073367)
(0.025741201 0.048880398 0.070904702)
(0.026306899 0.049021199 0.070883498)
(0.0260091 0.052855 0.0732527)
(0.025450001 0.052832201 0.073343903)
(0.024723301 0.048941199 0.071132503)
(0.0252227 0.048859902 0.070989601)
(0.026553901 0.052750301 0.073087201)
(0.026826199 0.049276099 0.070939802)
(0.0272307 0.049591798 0.071054399)
(0.0278484 0.051441599 0.072054602)
(0.0276876 0.051856499 0.072335102)
(0.0275515 0.049972501 0.0712239)
(0.027891001 0.0509471 0.071748197)
(0.027790301 0.050446901 0.071465299)
)

// edges

26
(
(0 1)
(1 2)
(3 0)
(4 5)
(2 6)
(7 8)
(6 9)
(10 4)
(11 10)
(12 13)
(14 15)
(16 17)
(9 16)
(15 11)
(18 14)
(19 20)
(13 19)
(8 18)
(17 12)
(21 22)
(20 23)
(24 21)
(23 25)
(25 24)
(5 3)
(22 7)
)

// concaveStart mixedStart nonFeatureStart
0 0 0
// internalStart flatStart openStart multipleStart
0 0 0 26
// normals

26
(
(0.15871818 -0.51007669 0.84535809)
(0.15869452 -0.50999766 0.84541022)
(0.15867531 -0.51005747 0.84537774)
(0.15861575 -0.51009487 0.84536635)
(0.1587648 -0.51018338 0.84528496)
(0.15875002 -0.51013523 0.84531679)
(0.15862663 -0.51014304 0.84533524)
(0.15868498 -0.51004255 0.84538493)
(0.15864642 -0.51012072 0.84534499)
(0.15863723 -0.51004454 0.84539269)
(0.15869475 -0.51014708 0.84532002)
(0.15887572 -0.51001163 0.84536775)
(0.15864378 -0.50992144 0.84546571)
(0.15862348 -0.510124 0.84534733)
(0.15876138 -0.51011155 0.84532895)
(0.15857763 -0.51005756 0.84539601)
(0.15867436 -0.51000378 0.84541031)
(0.15864548 -0.51007864 0.84537057)
(0.1585786 -0.51021558 0.84530048)
(0.15857195 -0.5100779 0.84538481)
(0.15854512 -0.51001073 0.84543036)
(0.15871059 -0.51011944 0.84533373)
(0.15854663 -0.51000639 0.8454327)
(0.15871796 -0.51006766 0.84536358)
(0.15870672 -0.51008007 0.84535821)
(0.15867034 -0.50999449 0.84541667)
)

// normal volume types

26
(
0
0
0
0
0
0
0
0
0
0
0
0
0
0
0
0
0
0
0
0
0
0
0
0
0
0
)

// normalDirections

26
(
1(1)
1(1)
1(1)
1(1)
1(1)
1(1)
1(1)
1(1)
1(1)
1(1)
1(1)
1(1)
1(1)
1(1)
1(1)
1(1)
1(1)
1(1)
1(1)
1(1)
1(1)
1(1)
1(1)
1(1)
1(1)
1(1)
)

// edgeNormals

26
(
1(0)
1(1)
1(2)
1(3)
1(4)
1(5)
1(6)
1(7)
1(8)
1(9)
1(10)
1(11)
1(12)
1(13)
1(14)
1(15)
1(16)
1(17)
1(18)
1(19)
1(20)
1(21)
1(22)
1(23)
1(24)
1(25)
)

// featurePointNormals
0()
// featurePointEdges
0()
// regionEdges

26
(
0
1
2
3
4
5
6
7
8
9
10
11
12
13
14
15
16
17
18
19
20
21
22
23
24
25
)



// ************************************************************************* //
