/*--------------------------------*- C++ -*----------------------------------*\
  =========                 |
  \\      /  F ield         | OpenFOAM: The Open Source CFD Toolbox
   \\    /   O peration     | Website:  https://openfoam.org
    \\  /    A nd           | Version:  7
     \\/     M anipulation  |
\*---------------------------------------------------------------------------*/
FoamFile
{
    version     2.0;
    format      ascii;
    class       extendedFeatureEdgeMesh;
    location    "constant/extendedFeatureEdgeMesh";
    object      wall.extendedFeatureEdgeMesh;
}
// * * * * * * * * * * * * * * * * * * * * * * * * * * * * * * * * * * * * * //

// points

200
(
(0.0128282 0.039631099 0.065311901)
(0.0124021 0.0393975 0.065462999)
(0.0052487799 0.043954801 0.068155199)
(0.0052903299 0.044006199 0.068140902)
(0.0211413 0.072332799 0.020682801)
(0.0209668 0.071839102 0.020643)
(0.0208556 0.071327902 0.020597599)
(0.0213765 0.072801203 0.0207166)
(0.021668401 0.073236898 0.0207437)
(0.022012699 0.073632903 0.0207638)
(0.022403801 0.0739832 0.020776501)
(0.022835599 0.074282102 0.020781601)
(0.023301199 0.074524902 0.020779001)
(0.023793399 0.074707799 0.020768801)
(0.024304301 0.074827902 0.020751201)
(0.024826 0.074883401 0.020726301)
(0.025350099 0.074873298 0.020694699)
(0.025868399 0.074797802 0.0206568)
(0.0263728 0.074658103 0.020613199)
(0.026855201 0.074456401 0.020564601)
(0.027308101 0.074195899 0.0205118)
(0.0277244 0.073880702 0.0204555)
(0.0280974 0.073515698 0.0203967)
(0.0284213 0.073106803 0.020336401)
(0.028690999 0.072660297 0.020275399)
(0.028902199 0.072183304 0.020214699)
(0.0290516 0.071683399 0.020155299)
(0.029136799 0.071168303 0.020098099)
(0.0291565 0.070646301 0.020044001)
(0.029110501 0.070125602 0.019993899)
(0.028999301 0.069614403 0.0199486)
(0.0288247 0.069120601 0.0199087)
(0.028589601 0.068652302 0.019874901)
(0.028297599 0.0682166 0.019847799)
(0.027953399 0.067820497 0.019827699)
(0.0275623 0.067470297 0.0198151)
(0.027130499 0.067171402 0.01981)
(0.026664799 0.066928603 0.0198125)
(0.026172699 0.066745698 0.0198227)
(0.025661699 0.066625498 0.019840401)
(0.025140099 0.066570103 0.0198652)
(0.024615999 0.066580199 0.0198968)
(0.0240977 0.066655599 0.019934701)
(0.023593299 0.066795297 0.0199783)
(0.0231109 0.066996999 0.0200269)
(0.022657899 0.067257501 0.020079801)
(0.0222417 0.067572802 0.020136001)
(0.0218687 0.067937702 0.020194801)
(0.021544799 0.068346702 0.020255201)
(0.021275099 0.0687932 0.0203162)
(0.0210639 0.069270097 0.0203768)
(0.020914501 0.069770098 0.020436199)
(0.020829299 0.070285097 0.020493399)
(0.0208095 0.070807099 0.0205475)
(0.0049713599 0.043612201 0.06825)
(0.0123251 0.0393552 0.065490402)
(0.026553901 0.052750301 0.073087201)
(0.027017601 0.052537698 0.072871901)
(0.0234192 0.051314399 0.072809197)
(0.023672 0.051786002 0.073046297)
(0.0233087 0.0508544 0.072552398)
(0.0233282 0.0503482 0.072243303)
(0.0238031 0.049462501 0.071619697)
(0.023496 0.049867298 0.071921699)
(0.024222599 0.049146201 0.071350098)
(0.024723301 0.048941199 0.071132503)
(0.0252227 0.048859902 0.070989601)
(0.025741201 0.048880398 0.070904702)
(0.026306899 0.049021199 0.070883498)
(0.027790301 0.050446901 0.071465299)
(0.0275515 0.049972501 0.0712239)
(0.0278484 0.051441599 0.072054602)
(0.027891001 0.0509471 0.071748197)
(0.027417099 0.052223898 0.072607502)
(0.025450001 0.052832201 0.073343903)
(0.0260091 0.052855 0.0732527)
(0.0244643 0.052497499 0.073326901)
(0.024947099 0.052714098 0.073367)
(0.024044299 0.052198101 0.073225103)
(0.026826199 0.049276099 0.070939802)
(0.0272307 0.049591798 0.071054399)
(0.0276876 0.051856499 0.072335102)
(-0.00057628501 0.0387224 0.074390098)
(-0.00076766103 0.0395074 0.074442297)
(0.0046830298 0.0380705 0.078545101)
(0.0044660098 0.0374633 0.078204297)
(0.0047877599 0.038750101 0.078812897)
(0.00381269 0.041858301 0.078840598)
(0.0041694199 0.041327901 0.078992598)
(0.0033924 0.042311799 0.0786158)
(0.0023874999 0.042946301 0.077958196)
(0.0028957401 0.042690501 0.078308202)
(0.00181542 0.043090198 0.077525698)
(0.00126192 0.043093801 0.077071004)
(0.00076507003 0.042966802 0.076628096)
(-0.00048776501 0.0417317 0.075266898)
(-0.00013545 0.042296 0.075707696)
(-0.00081590598 0.040298 0.074613802)
(-0.00072217401 0.041053101 0.0748927)
(-0.000265957 0.0379983 0.074452102)
(0.000123294 0.037392098 0.074610598)
(0.00467424 0.040056001 0.079068303)
(0.0047784802 0.039412599 0.078982197)
(0.0044755898 0.040695399 0.079075597)
(0.000279075 0.042695899 0.0761557)
(0.00058649399 0.0368842 0.074856199)
(0.0036428301 0.036459699 0.077258602)
(0.00308916 0.036193799 0.076731801)
(0.019221 0.040700398 0.079012901)
(0.0197668 0.040830102 0.078829698)
(0.018727999 0.040463101 0.079111502)
(0.018284099 0.040120501 0.079128303)
(0.017950799 0.039741501 0.079072997)
(0.0175457 0.038866598 0.078774802)
(0.017700501 0.0393163 0.078952998)
(0.017495699 0.038366798 0.078519396)
(0.017759001 0.037519298 0.077923499)
(0.017576201 0.0378967 0.078219503)
(0.018380901 0.036993701 0.077339098)
(0.0180285 0.0372179 0.077629097)
(0.0211307 0.0378442 0.076525703)
(0.0207316 0.037439499 0.0764869)
(0.0216507 0.039112002 0.076989301)
(0.021615701 0.038860802 0.076865502)
(0.0216529 0.039359 0.077125996)
(0.021521401 0.039904699 0.077491902)
(0.0212366 0.040357102 0.077877603)
(0.0203098 0.040822402 0.078571104)
(0.0198001 0.036932498 0.076640397)
(0.019286999 0.036840301 0.076829202)
(0.0203049 0.0371456 0.076522797)
(0.0214263 0.038336098 0.076661699)
(0.020829201 0.040654201 0.078234099)
(0.0041146399 0.036897901 0.077763997)
(0.018803099 0.0368638 0.077068903)
(0.0011515199 0.036460198 0.075208001)
(0.00178188 0.036184601 0.075653203)
(0.0024155001 0.0360853 0.076148301)
(0.00665781 0.039704401 0.033216801)
(0.00653787 0.0390389 0.0332864)
(0.0068505001 0.0403556 0.033189502)
(0.0071128998 0.0409825 0.033205099)
(0.0082718898 0.042620499 0.033502601)
(0.0078292396 0.042123899 0.033362798)
(0.0087618297 0.043056902 0.033680201)
(0.0092913397 0.043426201 0.033892799)
(0.0098520704 0.043722801 0.0341371)
(0.0104352 0.0439418 0.034409299)
(0.0110315 0.044079799 0.034704901)
(0.0116315 0.044134598 0.035019498)
(0.0122259 0.0441055 0.035347998)
(0.0128052 0.043992698 0.035685301)
(0.0133603 0.043798201 0.0360259)
(0.0138824 0.043524899 0.0363646)
(0.0143634 0.043177299 0.036696099)
(0.0147956 0.0427607 0.037014998)
(0.0151722 0.042281698 0.0373163)
(0.0154873 0.041747998 0.037595399)
(0.0157359 0.0411679 0.037847701)
(0.015914001 0.0405505 0.038069401)
(0.016019 0.0399056 0.038256899)
(0.016049 0.0392434 0.038407199)
(0.0160037 0.038574301 0.038518101)
(0.0158838 0.0379088 0.038587701)
(0.0156911 0.037257601 0.038614899)
(0.0154287 0.036630701 0.038599402)
(0.0151007 0.036038201 0.038541298)
(0.0147124 0.035489298 0.038441598)
(0.0142697 0.034992799 0.0383019)
(0.0137798 0.034556299 0.038124301)
(0.0132503 0.034187 0.037911698)
(0.0126895 0.0338904 0.037667301)
(0.0121064 0.033671401 0.037395202)
(0.0115101 0.033533402 0.037099499)
(0.0109101 0.033478599 0.036784898)
(0.0103157 0.033507701 0.036456399)
(0.0097364197 0.033620499 0.0361192)
(0.0091813197 0.033815 0.0357785)
(0.0086591598 0.034088299 0.0354398)
(0.0081781996 0.034435902 0.035108399)
(0.0077459998 0.034852501 0.034789499)
(0.0073694 0.035331499 0.034488101)
(0.0070543201 0.035865199 0.034209099)
(0.0068057398 0.036445301 0.033956699)
(0.0066275699 0.037062701 0.0337351)
(0.0065226299 0.037707601 0.033547599)
(0.00649257 0.038369801 0.033397201)
(0.0074408702 0.041575 0.033263098)
(0.0108776 0.044073898 0.054182701)
(0.0106642 0.044240899 0.053728599)
(0.016984999 0.052616298 0.063359797)
(0.0165851 0.052138701 0.0635674)
(0.0150368 0.050449599 0.064201802)
(0.0154629 0.0509611 0.0638327)
(0.016224699 0.0517045 0.0638109)
(0.0103876 0.044458698 0.053257599)
(0.011147 0.043613698 0.054536)
(0.0113924 0.0433628 0.055196099)
(0.0222422 0.0494393 0.0612887)
(0.021873999 0.048961598 0.061609499)
)

// edges

195
(
(188 189)
(190 191)
(192 193)
(194 191)
(195 189)
(196 197)
(198 199)
(0 1)
(2 3)
(4 5)
(5 6)
(7 4)
(8 7)
(9 8)
(10 9)
(11 10)
(12 11)
(13 12)
(14 13)
(15 14)
(16 15)
(17 16)
(18 17)
(19 18)
(20 19)
(21 20)
(22 21)
(23 22)
(24 23)
(25 24)
(26 25)
(27 26)
(28 27)
(29 28)
(30 29)
(31 30)
(32 31)
(33 32)
(34 33)
(35 34)
(36 35)
(37 36)
(38 37)
(39 38)
(40 39)
(41 40)
(42 41)
(43 42)
(44 43)
(45 44)
(46 45)
(47 46)
(48 47)
(49 48)
(50 49)
(51 50)
(52 51)
(53 52)
(6 53)
(3 54)
(55 0)
(56 57)
(58 59)
(60 58)
(61 60)
(62 63)
(64 62)
(65 64)
(66 65)
(67 66)
(68 67)
(69 70)
(71 72)
(57 73)
(74 75)
(76 77)
(77 74)
(78 76)
(59 78)
(63 61)
(79 68)
(80 79)
(70 80)
(72 69)
(81 71)
(73 81)
(75 56)
(82 83)
(84 85)
(86 84)
(87 88)
(89 87)
(90 91)
(92 90)
(93 92)
(94 93)
(95 96)
(97 98)
(98 95)
(83 97)
(99 82)
(100 99)
(101 102)
(103 101)
(88 103)
(91 89)
(96 104)
(105 100)
(106 107)
(108 109)
(110 108)
(111 110)
(112 111)
(113 114)
(115 113)
(116 117)
(118 119)
(120 121)
(122 123)
(124 122)
(125 124)
(126 125)
(109 127)
(119 116)
(128 129)
(130 128)
(121 130)
(131 120)
(123 131)
(132 126)
(133 106)
(127 132)
(134 118)
(129 134)
(117 115)
(114 112)
(135 105)
(136 135)
(85 133)
(102 86)
(104 94)
(107 137)
(137 136)
(54 2)
(138 139)
(140 138)
(141 140)
(142 143)
(144 142)
(145 144)
(146 145)
(147 146)
(148 147)
(149 148)
(150 149)
(151 150)
(152 151)
(153 152)
(154 153)
(155 154)
(156 155)
(157 156)
(158 157)
(159 158)
(160 159)
(161 160)
(162 161)
(163 162)
(164 163)
(165 164)
(166 165)
(167 166)
(168 167)
(169 168)
(170 169)
(171 170)
(172 171)
(173 172)
(174 173)
(175 174)
(176 175)
(177 176)
(178 177)
(179 178)
(180 179)
(181 180)
(182 181)
(183 182)
(184 183)
(185 184)
(186 185)
(139 186)
(1 55)
(187 141)
(143 187)
)

// concaveStart mixedStart nonFeatureStart
0 0 0
// internalStart flatStart openStart multipleStart
7 7 7 195
// normals

202
(
(0.46346648 -0.88409281 -0.059822377)
(-0.78785608 0.57704702 -0.21517328)
(-0.94144018 0.32573464 0.087105245)
(-0.97549843 0.20513641 0.079510107)
(-0.89289735 0.44225088 0.084548662)
(-0.8300538 0.55059444 0.088636608)
(-0.75367084 0.65048999 0.094037442)
(-0.66576996 0.73979914 0.097198719)
(-0.56716563 0.81764819 0.098866453)
(-0.45964338 0.88249361 0.099664364)
(-0.34489422 0.93358392 0.097308974)
(-0.22472073 0.96980828 0.094723208)
(-0.10115472 0.99086699 0.089164665)
(0.024256691 0.99618665 0.083807952)
(0.14909858 0.98597988 0.074921833)
(0.27162877 0.96013118 0.066075204)
(0.38981713 0.91931165 0.053932352)
(0.50174189 0.86405843 0.040719751)
(0.6058648 0.79504322 0.028881188)
(0.70052062 0.71347803 0.014831498)
(0.78380217 0.62100992 -0.00091608552)
(0.85495581 0.51848012 -0.015130035)
(0.91265118 0.40773714 -0.02860499)
(0.95572871 0.29089353 -0.044312463)
(0.98387429 0.16918256 -0.058040042)
(0.99659516 0.044787386 -0.069225599)
(0.99333965 -0.079752416 -0.083161858)
(0.97457086 -0.2037274 -0.093310198)
(0.94034566 -0.32413969 -0.10336102)
(0.89124253 -0.43929264 -0.11273298)
(0.82802812 -0.54737869 -0.12143312)
(0.75201961 -0.64712193 -0.1252985)
(0.66369106 -0.73650223 -0.13068526)
(0.56526264 -0.81436658 -0.1314733)
(0.45771292 -0.87927127 -0.13183672)
(0.34294851 -0.93004958 -0.13188668)
(0.22298664 -0.96658791 -0.12643085)
(0.099003116 -0.98741734 -0.12331013)
(-0.026067146 -0.9930131 -0.11508907)
(-0.15081663 -0.98270521 -0.10744682)
(-0.27337786 -0.95710243 -0.096018134)
(-0.39166631 -0.91612769 -0.085484226)
(-0.50362867 -0.86073482 -0.074119753)
(-0.6079185 -0.791706 -0.060305061)
(-0.70237611 -0.71015065 -0.04851654)
(-0.78584361 -0.61758908 -0.032148888)
(-0.85691629 -0.5151393 -0.018054456)
(-0.91447269 -0.40463839 -0.0027337114)
(-0.95772656 -0.28747053 0.010978578)
(-0.98578469 -0.16598126 0.026053014)
(-0.99840035 -0.041814216 0.038056628)
(-0.99517126 0.08305954 0.052299856)
(-0.78730419 0.57779412 -0.21518846)
(0.46389958 -0.88393681 -0.058761281)
(0.52434089 0.76507033 0.37381013)
(-0.88315373 0.28678413 0.37120662)
(-0.96187728 0.086160338 0.25955443)
(-0.9793282 -0.13155171 0.15365684)
(-0.83970268 -0.5198194 -0.15712161)
(-0.69020739 -0.6570935 -0.30305427)
(-0.48554243 -0.79117119 -0.37188264)
(-0.26668195 -0.85444246 -0.44587983)
(-0.047415123 -0.86556765 -0.49854233)
(0.18930657 -0.83772131 -0.51223631)
(0.90216034 -0.29300606 -0.31662937)
(0.98862484 0.13097812 -0.073930053)
(0.70218405 0.65099137 0.2883536)
(0.04576596 0.86645399 0.49715486)
(-0.37951332 0.74416462 0.54971689)
(-0.16756882 0.82043683 0.54662976)
(-0.57583817 0.63107037 0.51976976)
(-0.7485477 0.47592551 0.46170472)
(-0.94244712 -0.33425733 0.0080909944)
(0.42472291 -0.7548878 -0.4997548)
(0.62110183 -0.62338774 -0.474995)
(0.77951583 -0.47512683 -0.40817835)
(0.97579572 -0.081728048 -0.20283797)
(0.93928163 0.34152922 0.033283926)
(0.84352312 0.5192439 0.13731175)
(0.29611472 0.84896631 0.4376897)
(-0.76854425 -0.14594232 -0.62292902)
(0.70275122 -0.52229827 0.48305822)
(0.75879467 -0.33664905 0.55758235)
(0.55129765 0.55045464 0.62695342)
(0.44137073 0.69213721 0.5710849)
(0.17053126 0.89695507 0.40791015)
(0.014188397 0.95423632 0.2987168)
(-0.14115102 0.97357228 0.17953666)
(-0.28643494 0.95694986 0.046925472)
(-0.66784134 0.67007099 -0.32402594)
(-0.78782001 0.29706849 -0.53952752)
(-0.74904754 0.49903642 -0.43576419)
(-0.7996562 0.08029013 -0.59506593)
(-0.6962542 -0.35196208 -0.62558196)
(-0.59824398 -0.53913842 -0.59281861)
(0.74901638 0.032790664 0.66173955)
(0.70935438 0.21271867 0.67198745)
(0.63355509 0.39405263 0.66583066)
(0.30514292 0.80867908 0.50291742)
(-0.55425797 0.80623823 -0.20682848)
(-0.47456527 -0.69438146 -0.54094565)
(0.35239072 -0.93056621 0.099334314)
(-0.027681713 0.85288906 0.52135782)
(-0.25620741 0.77328418 0.57999082)
(-0.47306732 0.64250609 0.60282107)
(-0.64856987 0.48472841 0.5868522)
(-0.88387274 0.12573969 0.45050917)
(-0.91526014 -0.10692238 0.38841534)
(-0.84917271 -0.51220739 0.12864408)
(-0.6109592 -0.77917725 -0.14004166)
(0.59724946 -0.53138178 -0.60077157)
(0.90884095 0.075553583 -0.41024357)
(0.91887724 0.18474981 -0.34861459)
(0.91763562 0.34882201 -0.19044178)
(0.83136424 0.55452491 -0.036546205)
(0.20948479 0.88608075 0.4134937)
(-0.74771241 -0.66400623 -0.0046777165)
(-0.012382164 -0.8848383 -0.46573368)
(0.2202345 -0.81634397 -0.53392817)
(0.42727644 -0.69148875 -0.58247587)
(0.77113529 -0.3095952 -0.55632829)
(0.87907134 -0.14037241 -0.45555369)
(0.65997962 0.73833146 0.13890122)
(0.50714659 -0.82677375 0.24340808)
(0.45968007 0.83960037 0.28942261)
(-0.44778724 -0.84453723 -0.29367238)
(-0.22922878 -0.89836636 -0.37468927)
(-0.90542324 -0.32741758 0.27019712)
(-0.78238618 0.30775488 0.54144141)
(-0.34143852 -0.82644387 -0.44767205)
(-0.18269468 -0.93053946 -0.31736252)
(0.62107434 -0.68397699 0.38267759)
(0.76383328 -0.14973452 0.62780434)
(-0.42698827 0.90094038 -0.07737857)
(0.18718886 -0.98175049 -0.033560594)
(0.012439357 -0.97720844 -0.21191728)
(-0.78723095 0.57797408 -0.21497299)
(-0.85743955 0.1017788 -0.50441897)
(-0.82747466 0.22325187 -0.51521285)
(-0.78707039 0.34221183 -0.51323607)
(-0.58819088 0.65703484 -0.47152593)
(-0.50094951 0.74302035 -0.44381341)
(-0.4061406 0.81745777 -0.408427)
(-0.30641357 0.87940168 -0.36436713)
(-0.20163713 0.92763926 -0.314369)
(-0.090549327 0.95986412 -0.26544621)
(0.02043664 0.97764418 -0.20927064)
(0.13038673 0.98018762 -0.14910241)
(0.23915902 0.96704415 -0.087341707)
(0.34368877 0.93877554 -0.024052285)
(0.4431948 0.89555632 0.039461962)
(0.53575553 0.83824078 0.10157954)
(0.62019507 0.76751428 0.16211078)
(0.69493096 0.68464835 0.2198354)
(0.75930186 0.59087223 0.27263656)
(0.8106567 0.48807948 0.3234411)
(0.85035481 0.3770904 0.36701434)
(0.8768117 0.260299 0.40428414)
(0.88892258 0.13931197 0.4363586)
(0.88778905 0.016133427 0.45996774)
(0.87223927 -0.10724326 0.47717664)
(0.8439234 -0.22947714 0.4849057)
(0.80148126 -0.34750578 0.48669037)
(0.74678602 -0.46046901 0.47987387)
(0.68067469 -0.56599742 0.4651117)
(0.60428076 -0.66309708 0.44175449)
(0.51773316 -0.74917127 0.41315226)
(0.42342146 -0.82392837 0.37663817)
(0.32206625 -0.88531514 0.33539593)
(0.21666724 -0.93318018 0.28675783)
(0.10687965 -0.96602792 0.23530149)
(-0.0038908108 -0.98387603 0.17880946)
(-0.11362794 -0.98646582 0.11821113)
(-0.22260123 -0.97325095 0.056844258)
(-0.32747984 -0.94484014 -0.0058363535)
(-0.42715549 -0.90154663 -0.068933695)
(-0.51891345 -0.84447031 -0.1326602)
(-0.60364602 -0.77364955 -0.19255614)
(-0.67857525 -0.69072935 -0.24985715)
(-0.74344832 -0.59675452 -0.30194145)
(-0.79543775 -0.49375069 -0.35141008)
(-0.83553758 -0.38263969 -0.394289)
(-0.86097488 -0.26612986 -0.43347105)
(-0.87394057 -0.14502932 -0.46389048)
(-0.87282327 -0.021645471 -0.48755617)
(0.46428474 -0.8836849 -0.059503604)
(-0.73391508 0.45556642 -0.50381335)
(-0.66207815 0.55909625 -0.49906303)
(0.57609938 0.81684093 0.02967165)
(0.88545881 0.37119717 -0.27959855)
(-0.6004749 0.68332293 0.41533078)
(-0.78797169 0.60032931 -0.13676748)
(-0.82813002 0.47431525 -0.29870673)
(-0.68616128 0.70394832 0.18341063)
(-0.79966127 0.58288024 -0.14419594)
(-0.58422294 0.70771395 0.39727134)
(0.84555382 0.44892732 -0.28896887)
(0.58287374 0.81188697 0.033132439)
(0.94137277 0.19331703 -0.27648841)
(0.76763638 0.63948721 -0.042314161)
(0.49575 -0.71406512 -0.49431057)
(0.80068181 -0.59844212 0.02785097)
)

// normal volume types

202
(
0
0
0
0
0
0
0
0
0
0
0
0
0
0
0
0
0
0
0
0
0
0
0
0
0
0
0
0
0
0
0
0
0
0
0
0
0
0
0
0
0
0
0
0
0
0
0
0
0
0
0
0
0
0
0
0
0
0
0
0
0
0
0
0
0
0
0
0
0
0
0
0
0
0
0
0
0
0
0
0
0
0
0
0
0
0
0
0
0
0
0
0
0
0
0
0
0
0
0
0
0
0
0
0
0
0
0
0
0
0
0
0
0
0
0
0
0
0
0
0
0
0
0
0
0
0
0
0
0
0
0
0
0
0
0
0
0
0
0
0
0
0
0
0
0
0
0
0
0
0
0
0
0
0
0
0
0
0
0
0
0
0
0
0
0
0
0
0
0
0
0
0
0
0
0
0
0
0
0
0
0
0
0
0
0
0
0
0
0
0
0
0
0
0
0
0
0
0
0
0
0
0
)

// normalDirections

195
(
2(1 -1)
2(1 -1)
2(1 -1)
2(1 -1)
2(1 -1)
2(1 -1)
2(1 -1)
1(1)
1(1)
1(1)
1(1)
1(1)
1(1)
1(1)
1(1)
1(1)
1(1)
1(1)
1(1)
1(1)
1(1)
1(1)
1(1)
1(1)
1(1)
1(1)
1(1)
1(1)
1(1)
1(1)
1(1)
1(1)
1(1)
1(1)
1(1)
1(1)
1(1)
1(1)
1(1)
1(1)
1(1)
1(1)
1(1)
1(1)
1(1)
1(1)
1(1)
1(1)
1(1)
1(1)
1(1)
1(1)
1(1)
1(1)
1(1)
1(1)
1(1)
1(1)
1(1)
1(1)
1(1)
1(1)
1(1)
1(1)
1(1)
1(1)
1(1)
1(1)
1(1)
1(1)
1(1)
1(1)
1(1)
1(1)
1(1)
1(1)
1(1)
1(1)
1(1)
1(1)
1(1)
1(1)
1(1)
1(1)
1(1)
1(1)
1(1)
1(1)
1(1)
1(1)
1(1)
1(1)
1(1)
1(1)
1(1)
1(1)
1(1)
1(1)
1(1)
1(1)
1(1)
1(1)
1(1)
1(1)
1(1)
1(1)
1(1)
1(1)
1(1)
1(1)
1(1)
1(1)
1(1)
1(1)
1(1)
1(1)
1(1)
1(1)
1(1)
1(1)
1(1)
1(1)
1(1)
1(1)
1(1)
1(1)
1(1)
1(1)
1(1)
1(1)
1(1)
1(1)
1(1)
1(1)
1(1)
1(1)
1(1)
1(1)
1(1)
1(1)
1(1)
1(1)
1(1)
1(1)
1(1)
1(1)
1(1)
1(1)
1(1)
1(1)
1(1)
1(1)
1(1)
1(1)
1(1)
1(1)
1(1)
1(1)
1(1)
1(1)
1(1)
1(1)
1(1)
1(1)
1(1)
1(1)
1(1)
1(1)
1(1)
1(1)
1(1)
1(1)
1(1)
1(1)
1(1)
1(1)
1(1)
1(1)
1(1)
1(1)
1(1)
1(1)
1(1)
1(1)
1(1)
1(1)
1(1)
1(1)
1(1)
1(1)
1(1)
1(1)
1(1)
1(1)
1(1)
)

// edgeNormals

195
(
2(188 189)
2(190 191)
2(192 193)
2(194 195)
2(196 197)
2(198 199)
2(200 201)
1(0)
1(1)
1(2)
1(3)
1(4)
1(5)
1(6)
1(7)
1(8)
1(9)
1(10)
1(11)
1(12)
1(13)
1(14)
1(15)
1(16)
1(17)
1(18)
1(19)
1(20)
1(21)
1(22)
1(23)
1(24)
1(25)
1(26)
1(27)
1(28)
1(29)
1(30)
1(31)
1(32)
1(33)
1(34)
1(35)
1(36)
1(37)
1(38)
1(39)
1(40)
1(41)
1(42)
1(43)
1(44)
1(45)
1(46)
1(47)
1(48)
1(49)
1(50)
1(51)
1(52)
1(53)
1(54)
1(55)
1(56)
1(57)
1(58)
1(59)
1(60)
1(61)
1(62)
1(63)
1(64)
1(65)
1(66)
1(67)
1(68)
1(69)
1(70)
1(71)
1(72)
1(73)
1(74)
1(75)
1(76)
1(77)
1(78)
1(79)
1(80)
1(81)
1(82)
1(83)
1(84)
1(85)
1(86)
1(87)
1(88)
1(89)
1(90)
1(91)
1(92)
1(93)
1(94)
1(95)
1(96)
1(97)
1(98)
1(99)
1(100)
1(101)
1(102)
1(103)
1(104)
1(105)
1(106)
1(107)
1(108)
1(109)
1(110)
1(111)
1(112)
1(113)
1(114)
1(115)
1(116)
1(117)
1(118)
1(119)
1(120)
1(121)
1(122)
1(123)
1(124)
1(125)
1(126)
1(127)
1(128)
1(129)
1(130)
1(131)
1(132)
1(133)
1(134)
1(135)
1(136)
1(137)
1(138)
1(139)
1(140)
1(141)
1(142)
1(143)
1(144)
1(145)
1(146)
1(147)
1(148)
1(149)
1(150)
1(151)
1(152)
1(153)
1(154)
1(155)
1(156)
1(157)
1(158)
1(159)
1(160)
1(161)
1(162)
1(163)
1(164)
1(165)
1(166)
1(167)
1(168)
1(169)
1(170)
1(171)
1(172)
1(173)
1(174)
1(175)
1(176)
1(177)
1(178)
1(179)
1(180)
1(181)
1(182)
1(183)
1(184)
1(185)
1(186)
1(187)
)

// featurePointNormals
0()
// featurePointEdges
0()
// regionEdges

188
(
7
8
9
10
11
12
13
14
15
16
17
18
19
20
21
22
23
24
25
26
27
28
29
30
31
32
33
34
35
36
37
38
39
40
41
42
43
44
45
46
47
48
49
50
51
52
53
54
55
56
57
58
59
60
61
62
63
64
65
66
67
68
69
70
71
72
73
74
75
76
77
78
79
80
81
82
83
84
85
86
87
88
89
90
91
92
93
94
95
96
97
98
99
100
101
102
103
104
105
106
107
108
109
110
111
112
113
114
115
116
117
118
119
120
121
122
123
124
125
126
127
128
129
130
131
132
133
134
135
136
137
138
139
140
141
142
143
144
145
146
147
148
149
150
151
152
153
154
155
156
157
158
159
160
161
162
163
164
165
166
167
168
169
170
171
172
173
174
175
176
177
178
179
180
181
182
183
184
185
186
187
188
189
190
191
192
193
194
)



// ************************************************************************* //
