/*--------------------------------*- C++ -*----------------------------------*\
  =========                 |
  \\      /  F ield         | OpenFOAM: The Open Source CFD Toolbox
   \\    /   O peration     | Website:  https://openfoam.org
    \\  /    A nd           | Version:  6
     \\/     M anipulation  |
\*---------------------------------------------------------------------------*/
FoamFile
{
    version     2.0;
    format      ascii;
    class       dictionary;
    object      blockMeshDict;
}
// * * * * * * * * * * * * * * * * * * * * * * * * * * * * * * * * * * * * * //

backgroundMesh
{
    xMin   -70; // unit: mm
    xMax   70;
    yMin   -80; 
    yMax   80;
    zMin   -80;
    zMax   120;
    xCells  34;
    yCells  36;
    zCells  42;
}

convertToMeters 0.001;

vertices
(
    ($:backgroundMesh.xMin $:backgroundMesh.yMin $:backgroundMesh.zMin)
    ($:backgroundMesh.xMax $:backgroundMesh.yMin $:backgroundMesh.zMin)
    ($:backgroundMesh.xMax $:backgroundMesh.yMax $:backgroundMesh.zMin)
    ($:backgroundMesh.xMin $:backgroundMesh.yMax $:backgroundMesh.zMin)

    ($:backgroundMesh.xMin $:backgroundMesh.yMin $:backgroundMesh.zMax)
    ($:backgroundMesh.xMax $:backgroundMesh.yMin $:backgroundMesh.zMax)
    ($:backgroundMesh.xMax $:backgroundMesh.yMax $:backgroundMesh.zMax)
    ($:backgroundMesh.xMin $:backgroundMesh.yMax $:backgroundMesh.zMax)
);

blocks
(
    hex (0 1 2 3 4 5 6 7)
    (
        $:backgroundMesh.xCells
        $:backgroundMesh.yCells
        $:backgroundMesh.zCells
    )
    simpleGrading (1 1 1)
);

edges
(
);

boundary
(
    frontAndBack
    {
       type patch;
       faces
       (
           (1 5 6 2)
	   (0 3 7 4)
       );

}

    leftWall
    {
        type patch;
        faces
        (
            (0 4 5 1)
        );
    }

    rightWall
    {
        type patch;
        faces
        (
            (3 2 6 7)
        );
    }

    topWall
    {
        type patch;
        faces
        (
            (5 4 7 6)
        );
    }

    bottomWall
    {
        type patch;
        faces
        (
            (0 1 2 3)
        );
    }

);

// ************************************************************************* //
