/*--------------------------------*- C++ -*----------------------------------*\
  =========                 |
  \\      /  F ield         | OpenFOAM: The Open Source CFD Toolbox
   \\    /   O peration     | Website:  https://openfoam.org
    \\  /    A nd           | Version:  6
     \\/     M anipulation  |
\*---------------------------------------------------------------------------*/
FoamFile
{
    version     2.0;
    format      ascii;
    class       dictionary;
    object      surfaceFeaturesDict;
}
// * * * * * * * * * * * * * * * * * * * * * * * * * * * * * * * * * * * * * //

//surfaces ("buildings.obj");

//#includeEtc "caseDicts/surface/surfaceFeaturesDict.cfg"

// ************************************************************************* //

inlet.stl
{
    extractionMethod    extractFromSurface; // extractFromFile or extractFromSurface
    extractFromSurfaceCoeffs
    {includedAngle   150;}
    writeObj                yes;    // Write options
}

outlet.stl
{
    extractionMethod    extractFromSurface; // extractFromFile or extractFromSurface
    extractFromSurfaceCoeffs
    {includedAngle   150;}
    writeObj                yes;    // Write options
}

wall.stl
{
    extractionMethod    extractFromSurface; // extractFromFile or extractFromSurface
    extractFromSurfaceCoeffs
    {includedAngle   150;}
    writeObj                yes;    // Write options
}

sa1.stl
{
    extractionMethod    extractFromSurface; // extractFromFile or extractFromSurface
    extractFromSurfaceCoeffs
    {includedAngle   150;}
    writeObj                yes;    // Write options
}

sa2.stl
{
    extractionMethod    extractFromSurface; // extractFromFile or extractFromSurface
    extractFromSurfaceCoeffs
    {includedAngle   150;}
    writeObj                yes;    // Write options
}

sa3.stl
{
    extractionMethod    extractFromSurface; // extractFromFile or extractFromSurface
    extractFromSurfaceCoeffs
    {includedAngle   150;}
    writeObj                yes;    // Write options
}
